/*--------------------------------*- C++ -*----------------------------------*\
| =========                 |                                                 |
| \\      /  F ield         | OpenFOAM: The Open Source CFD Toolbox           |
|  \\    /   O peration     | Version:  2012                                  |
|   \\  /    A nd           | Website:  www.openfoam.com                      |
|    \\/     M anipulation  |                                                 |
\*---------------------------------------------------------------------------*/
// * * * * * * * * * * * * * * * * * * * * * * * * * * * * * * * * * * * * * //
FoamFile
{
    version         2;
    format          ascii;
    class           dictionary;
    object          dynamicMeshDict;
}

dynamicFvMesh   dynamicRefineFvMesh;

refineInterval  1;

field           refVal;

// adjust the value below (lowerRefineLevel)
// depending on which refinement strategy is used
lowerRefineLevel 1; // or 10 if gradp is used as refinement strategy

upperRefineLevel 100000000;

unrefineLevel   0;

nBufferLayers   2;

maxRefinement   7;

maxCells        10000000;

correctFluxes   ( ( phi none ) );

dumpLevel       true;


// ************************************************************************* //
